%oldchk=2water_RHF.chk
%chk=2water_CAS.chk
%mem=110GB
%nprocshared=28
%subst l910 /gscratch/chem/jenkins6/l910_Oct
#p nonstd
 1/29=2,38=1,172=1/1;
 2/12=2,15=1,40=1/2;
 3/5=16,6=1,7=10,11=1,14=-4,25=1,30=1,116=1/1,2,3;
 4/5=1/1;
 9/5=2,6=4,7=4,10=8,12=1000,13=1,15=1000,17=1,18=2,19=0,20=0,23=0,24=0,26=0,33=0,121=1/10;
 99/5=1,9=1/99; 

water dimer CAS(16,16)

0 1



