%oldchk=2water_CAS.chk
%chk=2water_RAS.chk
%mem=110GB
%nprocshared=28
%subst l910 /gscratch/chem/jenkins6/l910_Oct
#p nonstd
 1/29=2,38=1,172=1/1;
 2/12=2,15=1,40=1/2;
 3/5=16,6=1,7=10,11=1,14=-4,25=1,30=1,116=1/1,2,3;
 4/5=1,8=1/1;
 9/5=2,6=8,7=6,10=8,12=-1,13=1,15=1000,17=1000001,18=2,19=1,20=0,23=0,24=0,26=0,33=0,110=1,111=1,112=1,113=1,114=1/10;
 99/5=1,9=1/99; 

water dimer CAS(4,4) RAS1: 1s, RAS 3: LUMO

0 1

1 8

20.0


