%chk=2h2o_rhf.chk
%mem=200GB
%nprocshared=28
%subst l910 /gscratch/chem/lixinlu/cas_2022Feb
#p nonstd
 1/38=1,172=1/1;
 2/12=2,15=1,40=1/2;
 3/5=16,6=1,7=10,11=1,14=-4,25=1,30=1,116=1/1,2,3;
 4//1;
 5/5=2,38=5/2;
 6/7=3,28=1/1; 
 99/5=1,9=1/99; 

water dimer RHF

0 1
 O                 -0.82073400    0.39444000    1.06574600
 H                  0.13795100    0.42964900    0.96277200
 H                 -1.07137700    1.20950500    1.51077000
 H                 -0.13795100   -0.42964900   -0.96277200
 O                  0.82073400   -0.39444000   -1.06574600
 H                  1.07137700   -1.20950500   -1.51077000

